/*--------------------------------*- C++ -*----------------------------------*\
| =========                 |                                                 |
| \\      /  F ield         | OpenFOAM: The Open Source CFD Toolbox           |
|  \\    /   O peration     | Version:  5                                     |
|   \\  /    A nd           | Web:      www.OpenFOAM.org                      |
|    \\/     M anipulation  |                                                 |
\*---------------------------------------------------------------------------*/
FoamFile
{
    version     2.0;
    format      ascii;
    class       dictionary;
    object      blockMeshDict;
}
// * * * * * * * * * * * * * * * * * * * * * * * * * * * * * * * * * * * * * //

convertToMeters 1;

vertices
(
    (0 0 0)
    (2 0 0)
    (2 0.01 0)
    (0 0.01 0)
    (0 0 0.01)
    (2 0 0.01)
    (2 0.01 0.01)
    (0 0.01 0.01)
);

blocks
(
    hex (0 1 2 3 4 5 6 7) (20 1 1) simpleGrading (1 1 1)
);

edges
(
);

boundary
(
    Lwall
    {
        type cyclic;
        neighbourPatch Rwall;
        faces
        (
            (0 4 7 3)
        );
    }
    Rwall
    {
        type cyclic;
        neighbourPatch Lwall;
        faces
        (
            (2 6 5 1)
        );
    }
    frontAndBack
    {
        type empty;
        faces
        (
        	(1 5 4 0)
        	(3 7 6 2)
            (0 3 2 1)
            (4 5 6 7)
        );
    }
);

mergePatchPairs
(
);

// ************************************************************************* //
