/*--------------------------------*- C++ -*----------------------------------*\
| =========                 |                                                 |
| \\      /  F ield         | OpenFOAM: The Open Source CFD Toolbox           |
|  \\    /   O peration     | Version:  5.x                                   |
|   \\  /    A nd           | Web:      www.OpenFOAM.org                      |
|    \\/     M anipulation  |                                                 |
\*---------------------------------------------------------------------------*/
FoamFile
{
    version     2.0;
    format      ascii;
    class       IOobject;
    location    "0";
    object      initialConditions;
}
// * * * * * * * * * * * * * * * * * * * * * * * * * * * * * * * * * * * * * //

initialC #codeStream
{
    codeInclude
    #{
        #include "fvCFD.H"
    #};

    codeOptions
    #{
        -I$(LIB_SRC)/finiteVolume/lnInclude \
        -I$(LIB_SRC)/meshTools/lnInclude
    #};

    //libs needed to visualize BC in paraview
    codeLibs
    #{
        -lmeshTools \
	    -lfiniteVolume
    #};

    code
    #{
        const IOdictionary& d = static_cast<const IOdictionary&>(dict);
        const fvMesh& mesh = refCast<const fvMesh>(d.db());
        vectorField U(mesh.nCells(), vector(0, 0, 0));

        forAll(U, i)
        {
            const scalar x 	= mesh.C()[i][0];
            const scalar a_d 	= 10.;			//incidence angle in deg
            const scalar a_r 	= a_d*3.14159/180.;	//incidence angle in rad
            const scalar U0 	= 1.;			//reference velocity
		
            U[i] = vector(1., 0., 0.);

            if (x >= 0)
            {
                U[i] = vector(U0*cos(a_r), U0*sin(a_r), 0.);
            }
        }

        U.writeEntry("", os);
    #};
};
#inputMode merge

